/*--------------------------------*- C++ -*----------------------------------*\
| =========                 |                                                 |
| \\      /  F ield         | OpenFOAM: The Open Source CFD Toolbox           |
|  \\    /   O peration     | Version:  2.3.1                                 |
|   \\  /    A nd           | Web:      www.OpenFOAM.org                      |
|    \\/     M anipulation  |                                                 |
\*---------------------------------------------------------------------------*/
FoamFile
{
    version     2.0;
    format      ascii;
    class       dictionary;
    object      blockMeshDict;
}
// * * * * * * * * * * * * * * * * * * * * * * * * * * * * * * * * * * * * * //

convertToMeters 1.0;

vertices
(
    // coordinates of the outer domain
    (-10.5 -0.072252 0)		// 0
    (0.020034 10.4077 0)		// 1
    (0.5 10.4077 0)		// 2
    (20.5 10.4077 0)		// 3
    (20.5 -0.074954 0)		// 4
    (20.5 -10.5436 0)		// 5
    (0.5 -10.5436 0)		// 6
    (0.028647 -10.5436 0)		// 7
    // Airfoil key coordinates		// 8
    (-0.5 -0.072252 0)		// 9
    (0.020034 0.12086 0)		// 10
    (0.5 -0.074954 0)		// 11
    (0.028647 0.0031337 0)		// 12
    // ************************************************ // 
    // coordinates of the outer domain
    (-10.5 -0.072252 1)
    (0.020034 10.4077 1)
    (0.5 10.4077 1)
    (20.5 10.4077 1)
    (20.5 -0.074954 1)
    (20.5 -10.5436 1)
    (0.5 -10.5436 1)
    (0.028647 -10.5436 1)
    // Airfoil key coordinates
    (-0.5 -0.072252 1)
    (0.020034 0.12086 1)
    (0.5 -0.074954 1)
    (0.028647 0.0031337 1)
);

blocks
(
    hex (8 9 1 0 20 21 13 12) (40 100 1) simpleGrading (1 50 1)
    hex (9 10 2 1 21 22 14 13) (40 100 1) simpleGrading (1 50 1)
    hex (10 4 3 2 22 16 15 14) (200 100 1) simpleGrading (20 50 1)
    
    hex (11 8 0 7 23 20 12 19) (40 100 1) simpleGrading (1 50 1)
    hex (10 11 7 6 22 23 19 18) (60 100 1) simpleGrading (1 50 1)
    hex (4 10 6 5 16 22 18 17) (200 100 1) simpleGrading (0.05 50 1)
);

edges
(
    // Arc for the front
    arc 0 1 (-6.7164 7.9559 0)
    arc 12 13 (-6.7164 7.9559 1)
    arc 0 7 (-7.9929 -6.8031 0)
    arc 12 19 (-7.9929 -6.8031 1)
    // Define airfoil top-front surface // 
    spline 8 9
    (
        (-0.047733 0.12519 0)
        (-0.11456 0.12391 0)
        (-0.17928 0.11709 0)
        (-0.24073 0.10508 0)
        (-0.29783 0.088414 0)
        (-0.34954 0.067877 0)
        (-0.39493 0.044432 0)
        (-0.43313 0.019218 0)
        (-0.4634 -0.006479 0)
        (-0.48505 -0.031266 0)
        (-0.49745 -0.05368 0)
    )
    spline 20 21
    (
        (-0.047733 0.12519 1)
        (-0.11456 0.12391 1)
        (-0.17928 0.11709 1)
        (-0.24073 0.10508 1)
        (-0.29783 0.088414 1)
        (-0.34954 0.067877 1)
        (-0.39493 0.044432 1)
        (-0.43313 0.019218 1)
        (-0.4634 -0.006479 1)
        (-0.48505 -0.031266 1)
        (-0.49745 -0.05368 1)
    )
    // Define airfoil top-back surface // 
    spline 9 10
    (
        (0.49856 -0.071406 0)
        (0.48421 -0.060141 0)
        (0.45893 -0.042581 0)
        (0.42433 -0.020503 0)
        (0.38174 0.0042227 0)
        (0.33232 0.029794 0)
        (0.27713 0.054573 0)
        (0.21723 0.077132 0)
        (0.15367 0.096283 0)
        (0.087558 0.11109 0)
    )
    spline 21 22
    (
        (0.49856 -0.071406 1)
        (0.48421 -0.060141 1)
        (0.45893 -0.042581 1)
        (0.42433 -0.020503 1)
        (0.38174 0.0042227 1)
        (0.33232 0.029794 1)
        (0.27713 0.054573 1)
        (0.21723 0.077132 1)
        (0.15367 0.096283 1)
        (0.087558 0.11109 1)
    )
    // Define airfoil bottom-front surface // 
    spline 8 11
    (
        (-0.49206 -0.085589 0)
        (-0.47292 -0.092489 0)
        (-0.44172 -0.092119 0)
        (-0.3975 -0.084243 0)
        (-0.33929 -0.069521 0)
        (-0.26643 -0.049799 0)
        (-0.17916 -0.028254 0)
        (-0.079386 -0.0091319 0)
    )
    spline 20 23
    (
        (-0.49206 -0.085589 1)
        (-0.47292 -0.092489 1)
        (-0.44172 -0.092119 1)
        (-0.3975 -0.084243 1)
        (-0.33929 -0.069521 1)
        (-0.26643 -0.049799 1)
        (-0.17916 -0.028254 1)
        (-0.079386 -0.0091319 1)
    )
    // Define airfoil bottom-back surface // 
    spline 11 10
    (
        (0.13834 0.0053687 0)
        (0.24181 -0.0029687 0)
        (0.3318 -0.019371 0)
        (0.40338 -0.039213 0)
        (0.45465 -0.057454 0)
        (0.48619 -0.070114 0)
    )
    spline 23 22
    (
        (0.13834 0.0053687 1)
        (0.24181 -0.0029687 1)
        (0.3318 -0.019371 1)
        (0.40338 -0.039213 1)
        (0.45465 -0.057454 1)
        (0.48619 -0.070114 1)
    )
);

boundary
(
    inlet
    {
        type patch;
        faces
        (
            (0 1 13 12)
            (0 7 19 12)
        );
    }
    
    outlet
    {
        type patch;
        faces
        (
            (3 4 16 15)
            (4 5 17 16)
        );
    }
    
    airfoil
    {
        type wall;
        faces
        (
            (8 9 21 20)
            (9 10 22 21)
            (8 11 23 20)
            (11 10 22 23)
        );
    }
    
    walls
    {
        type wall;
        faces
        (
            (1 2 14 13)
            (2 3 15 14)
            (7 6 18 19)
            (6 5 17 18)
        );
    }
);

mergePatchPairs
(
);

// ************************************************************************* //
