/*--------------------------------*- C++ -*----------------------------------*\
| =========                 |                                                 |
| \\      /  F ield         | OpenFOAM: The Open Source CFD Toolbox           |
|  \\    /   O peration     | Version:  2.3.1                                 |
|   \\  /    A nd           | Web:      www.OpenFOAM.org                      |
|    \\/     M anipulation  |                                                 |
\*---------------------------------------------------------------------------*/
FoamFile
{
    version     2.0;
    format      ascii;
    class       dictionary;
    object      blockMeshDict;
}
// * * * * * * * * * * * * * * * * * * * * * * * * * * * * * * * * * * * * * //

convertToMeters 1.0;

vertices
(
);

blocks
(
    hex (8 9 1 0 20 21 13 12) (40 100 1) simpleGrading (1 50 1)
    hex (9 10 2 1 21 22 14 13) (40 100 1) simpleGrading (1 50 1)
    hex (10 4 3 2 22 16 15 14) (200 100 1) simpleGrading (20 50 1)
    
    hex (11 8 0 7 23 20 12 19) (40 100 1) simpleGrading (1 50 1)
    hex (10 11 7 6 22 23 19 18) (60 100 1) simpleGrading (1 50 1)
    hex (4 10 6 5 16 22 18 17) (200 100 1) simpleGrading (0.05 50 1)
);

edges
(
);

boundary
(
    inlet
    {
        type patch;
        faces
        (
            (0 1 13 12)
            (0 7 19 12)
        );
    }
    
    outlet
    {
        type patch;
        faces
        (
            (3 4 16 15)
            (4 5 17 16)
        );
    }
    
    airfoil
    {
        type wall;
        faces
        (
            (8 9 21 20)
            (9 10 22 21)
            (8 11 23 20)
            (11 10 22 23)
        );
    }
    
    walls
    {
        type patch;
        faces
        (
            (1 2 14 13)
            (2 3 15 14)
            (7 6 18 19)
            (6 5 17 18)
        );
    }
);

mergePatchPairs
(
);

// ************************************************************************* //
