/*--------------------------------*- C++ -*----------------------------------*\
| =========                 |                                                 |
| \\      /  F ield         | OpenFOAM: The Open Source CFD Toolbox           |
|  \\    /   O peration     | Version:  2.3.1                                 |
|   \\  /    A nd           | Web:      www.OpenFOAM.org                      |
|    \\/     M anipulation  |                                                 |
\*---------------------------------------------------------------------------*/
FoamFile
{
    version     2.0;
    format      ascii;
    class       dictionary;
    location    "system";
    object      sampleDict;
}
// * * * * * * * * * * * * * * * * * * * * * * * * * * * * * * * * * * * * * //

interpolationScheme cellPointFace;

setFormat       raw;

sets
(
    airfoilTop
    {
        type    polyLine;
        axis    distance;
        points
        (
        // Top surface
            (-0.49681 -0.010656 0)
            (-0.48887 0.00053064 0)
            (-0.47631 0.011921 0)
            (-0.45929 0.023253 0)
            (-0.43799 0.034269 0)
            (-0.41263 0.044721 0)
            (-0.38344 0.054372 0)
            (-0.3507 0.063008 0)
            (-0.31468 0.070437 0)
            (-0.2757 0.076497 0)
            (-0.2341 0.081057 0)
            (-0.19022 0.084022 0)
            (-0.14444 0.085335 0)
            (-0.097136 0.084978 0)
            (-0.048725 0.082977 0)
            (0.00037966 0.079397 0)
            (0.049745 0.074347 0)
            (0.098928 0.067977 0)
            (0.14747 0.060473 0)
            (0.1949 0.052059 0)
            (0.24074 0.042986 0)
            (0.28449 0.03353 0)
            (0.32564 0.023981 0)
            (0.3637 0.014634 0)
            (0.39812 0.0057796 0)
            (0.42839 -0.0023156 0)
            (0.45398 -0.0094169 0)
            (0.4744 -0.01534 0)
            (0.48915 -0.019963 0)
            (0.49781 -0.023239 0)
        );
    }
    
    airfoilBottom
    {
        type    polyLine;
        axis    distance;
        points
        (
        // Bottom surface
            (-0.49835 -0.031398 0)
            (-0.49179 -0.040475 0)
            (-0.48028 -0.048406 0)
            (-0.46382 -0.055016 0)
            (-0.44245 -0.060167 0)
            (-0.41623 -0.063767 0)
            (-0.38529 -0.065776 0)
            (-0.34979 -0.06621 0)
            (-0.30995 -0.065143 0)
            (-0.26603 -0.062712 0)
            (-0.2184 -0.059112 0)
            (-0.16748 -0.054591 0)
            (-0.11377 -0.049442 0)
            (-0.05788 -0.043986 0)
            (-0.00049147 -0.038557 0)
            (0.057615 -0.033478 0)
            (0.11558 -0.029035 0)
            (0.1725 -0.025459 0)
            (0.2274 -0.022895 0)
            (0.27935 -0.021398 0)
            (0.32741 -0.020913 0)
            (0.37074 -0.021291 0)
            (0.40859 -0.022289 0)
            (0.44035 -0.023602 0)
            (0.46558 -0.024885 0)
            (0.48399 -0.02579 0)
            (0.49545 -0.025989 0)
        );
    }
);

fields          ( p U V );


// ************************************************************************* //
