/*--------------------------------*- C++ -*----------------------------------*\
| =========                 |                                                 |
| \\      /  F ield         | OpenFOAM: The Open Source CFD Toolbox           |
|  \\    /   O peration     | Version:  2.3.1                                 |
|   \\  /    A nd           | Web:      www.OpenFOAM.org                      |
|    \\/     M anipulation  |                                                 |
\*---------------------------------------------------------------------------*/
FoamFile
{
    version     2.0;
    format      ascii;
    class       dictionary;
    location    "system";
    object      sampleDict;
}
// * * * * * * * * * * * * * * * * * * * * * * * * * * * * * * * * * * * * * //

interpolationScheme cellPointFace;

setFormat       raw;

sets
(
    airfoilTop
    {
        type    polyLine;
        axis    distance;
        points
        (
        // Top surface
        );
    }
    
    airfoilBottom
    {
        type    polyLine;
        axis    distance;
        points
        (
        // Bottom surface
        );
    }
);

fields          ( p U V );


// ************************************************************************* //
