/*--------------------------------*- C++ -*----------------------------------*\
| =========                 |                                                 |
| \\      /  F ield         | OpenFOAM: The Open Source CFD Toolbox           |
|  \\    /   O peration     | Version:  2.3.1                                 |
|   \\  /    A nd           | Web:      www.OpenFOAM.org                      |
|    \\/     M anipulation  |                                                 |
\*---------------------------------------------------------------------------*/
FoamFile
{
    version     2.0;
    format      ascii;
    class       volVectorField;
    object      U;
}
// * * * * * * * * * * * * * * * * * * * * * * * * * * * * * * * * * * * * * //

dimensions      [0 1 -1 0 0 0 0];

internalField   uniform (10 0 0);

boundaryField
{
    inlet
    {
        //type            freestream;
        type            fixedValue;
        value uniform (10 0 0); // CHANGE THIS
    }

    outlet
    {
    	/*
        type            freestream;
        freestreamValue uniform (9.2473 3.8063 0);
        */
        type			zeroGradient;
    }

    airfoil
    {
        type            fixedValue;
        value           uniform (0 0 0);
    }
    
    walls
    {
    	/*
        type            fixedValue;
        value uniform (9.2473 3.8063 0);
        */
		//type            slip;
		type			zeroGradient;
    }

    defaultFaces
    {
        type            empty;
    }
}

// ************************************************************************* //
